SOLVER= INC_RANS
KIND_TURB_MODEL= SA
KIND_TRANS_MODEL= BC
FREESTREAM_TURBULENCEINTENSITY= 0.18
MATH_PROBLEM= DIRECT
TIME_DOMAIN= YES
INNER_ITER= 10
TIME_MARCHING= DUAL_TIME_STEPPING-2ND_ORDER
TIME_STEP= 0.01
TIME_ITER= 2000
MAX_TIME=0.01
RESTART_SOL= YES
RESTART_ITER= 2000 	
INC_DENSITY_INIT= 1.2
INC_VELOCITY_INIT= ( 1.5, 0.0, 0.0 )
VISCOSITY_MODEL= CONSTANT_VISCOSITY
MU_CONSTANT= 1.8e-05
MARKER_FAR= (FAR )
MARKER_HEATFLUX=  ( WALL, 0) 	
MARKER_EULER= ( ZUPPER, ZLOWER, EULER )
INC_INLET_TYPE= VELOCITY_INLET, VELOCITY_INLET
MARKER_INLET= ( JETHOLEUPPER, 300, 0.0, -0.052336, 0.99863, 0.0, JETHOLELOWER, 300, 0.0, -0.052336, -0.99863, 0.0) 	
MARKER_PLOTTING= ( WALL )
MARKER_MONITORING= ( WALL )
NUM_METHOD_GRAD= WEIGHTED_LEAST_SQUARES
CFL_NUMBER= 10.0
CFL_ADAPT= NO
CFL_ADAPT_PARAM= ( 0.1, 2.0, 5.0, 100 )
VENKAT_LIMITER_COEFF= 0.01
ADJ_SHARP_LIMITER_COEFF= 3.0
REF_SHARP_EDGES= 3.0
SENS_REMOVE_SHARP= NO
LINEAR_SOLVER= FGMRES
LINEAR_SOLVER_PREC= ILU
LINEAR_SOLVER_ERROR= 1E-4
LINEAR_SOLVER_ITER= 10
MGLEVEL= 0
MGCYCLE= V_CYCLE
MG_PRE_SMOOTH= ( 1, 2, 3, 3 )
MG_POST_SMOOTH= ( 0, 0, 0, 0 )
MG_CORRECTION_SMOOTH= ( 0, 0, 0, 0 )
MG_DAMP_RESTRICTION= 0.75
MG_DAMP_PROLONGATION= 0.75
CONV_NUM_METHOD_FLOW= FDS
MUSCL_FLOW= YES
SLOPE_LIMITER_FLOW= NONE
JST_SENSOR_COEFF= ( 0.5, 0.0)
TIME_DISCRE_FLOW= EULER_IMPLICIT
CONV_NUM_METHOD_TURB= SCALAR_UPWIND
MUSCL_TURB= NO
SLOPE_LIMITER_TURB= VENKATAKRISHNAN
TIME_DISCRE_TURB= EULER_IMPLICIT
CONV_FIELD= RMS_PRESSURE
CONV_RESIDUAL_MINVAL= -12
CONV_STARTITER= 10
CONV_CAUCHY_ELEMS= 100
CONV_CAUCHY_EPS= 1E-6
OUTPUT_FILES= (RESTART, PARAVIEW_LEGACY, SURFACE_CSV)
MESH_FORMAT= CGNS
MESH_OUT_FILENAME= mesh_out.su2
SOLUTION_FILENAME= restart_flow.dat
SOLUTION_ADJ_FILENAME= solution_adj.dat
TABULAR_FORMAT= CSV
CONV_FILENAME= history
VOLUME_FILENAME= flow
RESTART_FILENAME= restart_flow.dat
RESTART_ADJ_FILENAME= restart_adj.dat
VOLUME_ADJ_FILENAME= adjoint
GRAD_OBJFUNC_FILENAME= of_grad.dat
SURFACE_FILENAME= surface_flow
SURFACE_ADJ_FILENAME= surface_adjoint
WRT_SOL_FREQ= 1.0
WRT_SOL_FREQ_DUALTIME= 1
WRT_CON_FREQ_DUALTIME= 10
WRT_CON_FREQ= 1
WRT_CSV_SOL= NO
MESH_FILENAME= jethole.cgns